[root]
type=Root
children=system
eventq_index=0
full_system=true
sim_quantum=1000000000
time_sync_enable=false
time_sync_period=100000000000
time_sync_spin_threshold=100000000

[system]
type=System
children=atomicCpu0 atomicCpu1 atomicCpu2 atomicCpu3 atomicCpu4 atomicCpu5 atomicCpu6 atomicCpu7 caches clk_domain cpu0 cpu1 cpu2 cpu3 cpu4 cpu5 cpu6 cpu7 dvfs_handler far_mem_ctrl iobus kvm_vm loc_mem_ctrl mem_ctrl o3Cpu0 o3Cpu1 o3Cpu2 o3Cpu3 o3Cpu4 o3Cpu5 o3Cpu6 o3Cpu7 pc timingCpu0 timingCpu1 timingCpu2 timingCpu3 timingCpu4 timingCpu5 timingCpu6 timingCpu7 workload
auto_unlink_shared_backstore=false
cache_line_size=64
eventq_index=0
exit_on_work_items=true
init_param=0
m5ops_base=4294901760
mem_mode=atomic_noncaching
mem_ranges=0:2147483648 3221225472:3222274048
memories=system.far_mem_ctrl.dram system.loc_mem_ctrl.dram system.loc_mem_ctrl.dram_2 system.mem_ctrl
mmap_using_noreserve=false
multi_thread=false
num_work_ids=16
readfile=results/NPB/Nov14/set1/is_C_x/run_is.C.x
redirect_paths=
shadow_rom_ranges=
shared_backstore=
symbolfile=
thermal_components=
thermal_model=Null
work_begin_ckpt_count=0
work_begin_cpu_id_exit=-1
work_begin_exit_count=0
work_cpus_ckpt_count=0
work_end_ckpt_count=0
work_end_exit_count=0
work_item_id=-1
workload=system.workload
system_port=system.caches.sys_port_proxy.in_ports[0]

[system.atomicCpu0]
type=BaseAtomicSimpleCPU
children=decoder isa mmu power_state tracer
branchPred=Null
checker=Null
clk_domain=system.clk_domain
cpu_id=0
decoder=system.atomicCpu0.decoder
do_checkpoint_insts=true
do_statistics_insts=true
eventq_index=0
function_trace=false
function_trace_start=0
interrupts=
isa=system.atomicCpu0.isa
max_insts_all_threads=0
max_insts_any_thread=0
mmu=system.atomicCpu0.mmu
numThreads=1
power_gating_on_idle=false
power_model=
power_state=system.atomicCpu0.power_state
progress_interval=0
pwr_gating_latency=300
simpoint_start_insts=
simulate_data_stalls=false
simulate_inst_stalls=false
socket_id=0
switched_out=true
syscallRetryLatency=10000
system=system
tracer=system.atomicCpu0.tracer
width=1
workload=

[system.atomicCpu0.decoder]
type=X86Decoder
eventq_index=0
isa=system.atomicCpu0.isa

[system.atomicCpu0.isa]
type=X86ISA
eventq_index=0
vendor_string=M5 Simulator

[system.atomicCpu0.mmu]
type=X86MMU
children=dtb itb
dtb=system.atomicCpu0.mmu.dtb
eventq_index=0
itb=system.atomicCpu0.mmu.itb

[system.atomicCpu0.mmu.dtb]
type=X86TLB
children=walker
entry_type=data
eventq_index=0
next_level=Null
size=64
system=system
walker=system.atomicCpu0.mmu.dtb.walker

[system.atomicCpu0.mmu.dtb.walker]
type=X86PagetableWalker
children=power_state
clk_domain=system.clk_domain
eventq_index=0
num_squash_per_cycle=4
power_model=
power_state=system.atomicCpu0.mmu.dtb.walker.power_state
system=system

[system.atomicCpu0.mmu.dtb.walker.power_state]
type=PowerState
clk_gate_bins=20
clk_gate_max=1000000000000
clk_gate_min=1000
default_state=UNDEFINED
eventq_index=0
leaders=
possible_states=

[system.atomicCpu0.mmu.itb]
type=X86TLB
children=walker
entry_type=instruction
eventq_index=0
next_level=Null
size=64
system=system
walker=system.atomicCpu0.mmu.itb.walker

[system.atomicCpu0.mmu.itb.walker]
type=X86PagetableWalker
children=power_state
clk_domain=system.clk_domain
eventq_index=0
num_squash_per_cycle=4
power_model=
power_state=system.atomicCpu0.mmu.itb.walker.power_state
system=system

[system.atomicCpu0.mmu.itb.walker.power_state]
type=PowerState
clk_gate_bins=20
clk_gate_max=1000000000000
clk_gate_min=1000
default_state=UNDEFINED
eventq_index=0
leaders=
possible_states=

[system.atomicCpu0.power_state]
type=PowerState
clk_gate_bins=20
clk_gate_max=1000000000000
clk_gate_min=1000
default_state=UNDEFINED
eventq_index=0
leaders=
possible_states=ON CLK_GATED OFF

[system.atomicCpu0.tracer]
type=ExeTracer
eventq_index=0

[system.atomicCpu1]
type=BaseAtomicSimpleCPU
children=decoder isa mmu power_state tracer
branchPred=Null
checker=Null
clk_domain=system.clk_domain
cpu_id=1
decoder=system.atomicCpu1.decoder
do_checkpoint_insts=true
do_statistics_insts=true
eventq_index=0
function_trace=false
function_trace_start=0
interrupts=
isa=system.atomicCpu1.isa
max_insts_all_threads=0
max_insts_any_thread=0
mmu=system.atomicCpu1.mmu
numThreads=1
power_gating_on_idle=false
power_model=
power_state=system.atomicCpu1.power_state
progress_interval=0
pwr_gating_latency=300
simpoint_start_insts=
simulate_data_stalls=false
simulate_inst_stalls=false
socket_id=0
switched_out=true
syscallRetryLatency=10000
system=system
tracer=system.atomicCpu1.tracer
width=1
workload=

[system.atomicCpu1.decoder]
type=X86Decoder
eventq_index=0
isa=system.atomicCpu1.isa

[system.atomicCpu1.isa]
type=X86ISA
eventq_index=0
vendor_string=M5 Simulator

[system.atomicCpu1.mmu]
type=X86MMU
children=dtb itb
dtb=system.atomicCpu1.mmu.dtb
eventq_index=0
itb=system.atomicCpu1.mmu.itb

[system.atomicCpu1.mmu.dtb]
type=X86TLB
children=walker
entry_type=data
eventq_index=0
next_level=Null
size=64
system=system
walker=system.atomicCpu1.mmu.dtb.walker

[system.atomicCpu1.mmu.dtb.walker]
type=X86PagetableWalker
children=power_state
clk_domain=system.clk_domain
eventq_index=0
num_squash_per_cycle=4
power_model=
power_state=system.atomicCpu1.mmu.dtb.walker.power_state
system=system

[system.atomicCpu1.mmu.dtb.walker.power_state]
type=PowerState
clk_gate_bins=20
clk_gate_max=1000000000000
clk_gate_min=1000
default_state=UNDEFINED
eventq_index=0
leaders=
possible_states=

[system.atomicCpu1.mmu.itb]
type=X86TLB
children=walker
entry_type=instruction
eventq_index=0
next_level=Null
size=64
system=system
walker=system.atomicCpu1.mmu.itb.walker

[system.atomicCpu1.mmu.itb.walker]
type=X86PagetableWalker
children=power_state
clk_domain=system.clk_domain
eventq_index=0
num_squash_per_cycle=4
power_model=
power_state=system.atomicCpu1.mmu.itb.walker.power_state
system=system

[system.atomicCpu1.mmu.itb.walker.power_state]
type=PowerState
clk_gate_bins=20
clk_gate_max=1000000000000
clk_gate_min=1000
default_state=UNDEFINED
eventq_index=0
leaders=
possible_states=

[system.atomicCpu1.power_state]
type=PowerState
clk_gate_bins=20
clk_gate_max=1000000000000
clk_gate_min=1000
default_state=UNDEFINED
eventq_index=0
leaders=
possible_states=ON CLK_GATED OFF

[system.atomicCpu1.tracer]
type=ExeTracer
eventq_index=0

[system.atomicCpu2]
type=BaseAtomicSimpleCPU
children=decoder isa mmu power_state tracer
branchPred=Null
checker=Null
clk_domain=system.clk_domain
cpu_id=2
decoder=system.atomicCpu2.decoder
do_checkpoint_insts=true
do_statistics_insts=true
eventq_index=0
function_trace=false
function_trace_start=0
interrupts=
isa=system.atomicCpu2.isa
max_insts_all_threads=0
max_insts_any_thread=0
mmu=system.atomicCpu2.mmu
numThreads=1
power_gating_on_idle=false
power_model=
power_state=system.atomicCpu2.power_state
progress_interval=0
pwr_gating_latency=300
simpoint_start_insts=
simulate_data_stalls=false
simulate_inst_stalls=false
socket_id=0
switched_out=true
syscallRetryLatency=10000
system=system
tracer=system.atomicCpu2.tracer
width=1
workload=

[system.atomicCpu2.decoder]
type=X86Decoder
eventq_index=0
isa=system.atomicCpu2.isa

[system.atomicCpu2.isa]
type=X86ISA
eventq_index=0
vendor_string=M5 Simulator

[system.atomicCpu2.mmu]
type=X86MMU
children=dtb itb
dtb=system.atomicCpu2.mmu.dtb
eventq_index=0
itb=system.atomicCpu2.mmu.itb

[system.atomicCpu2.mmu.dtb]
type=X86TLB
children=walker
entry_type=data
eventq_index=0
next_level=Null
size=64
system=system
walker=system.atomicCpu2.mmu.dtb.walker

[system.atomicCpu2.mmu.dtb.walker]
type=X86PagetableWalker
children=power_state
clk_domain=system.clk_domain
eventq_index=0
num_squash_per_cycle=4
power_model=
power_state=system.atomicCpu2.mmu.dtb.walker.power_state
system=system

[system.atomicCpu2.mmu.dtb.walker.power_state]
type=PowerState
clk_gate_bins=20
clk_gate_max=1000000000000
clk_gate_min=1000
default_state=UNDEFINED
eventq_index=0
leaders=
possible_states=

[system.atomicCpu2.mmu.itb]
type=X86TLB
children=walker
entry_type=instruction
eventq_index=0
next_level=Null
size=64
system=system
walker=system.atomicCpu2.mmu.itb.walker

[system.atomicCpu2.mmu.itb.walker]
type=X86PagetableWalker
children=power_state
clk_domain=system.clk_domain
eventq_index=0
num_squash_per_cycle=4
power_model=
power_state=system.atomicCpu2.mmu.itb.walker.power_state
system=system

[system.atomicCpu2.mmu.itb.walker.power_state]
type=PowerState
clk_gate_bins=20
clk_gate_max=1000000000000
clk_gate_min=1000
default_state=UNDEFINED
eventq_index=0
leaders=
possible_states=

[system.atomicCpu2.power_state]
type=PowerState
clk_gate_bins=20
clk_gate_max=1000000000000
clk_gate_min=1000
default_state=UNDEFINED
eventq_index=0
leaders=
possible_states=ON CLK_GATED OFF

[system.atomicCpu2.tracer]
type=ExeTracer
eventq_index=0

[system.atomicCpu3]
type=BaseAtomicSimpleCPU
children=decoder isa mmu power_state tracer
branchPred=Null
checker=Null
clk_domain=system.clk_domain
cpu_id=3
decoder=system.atomicCpu3.decoder
do_checkpoint_insts=true
do_statistics_insts=true
eventq_index=0
function_trace=false
function_trace_start=0
interrupts=
isa=system.atomicCpu3.isa
max_insts_all_threads=0
max_insts_any_thread=0
mmu=system.atomicCpu3.mmu
numThreads=1
power_gating_on_idle=false
power_model=
power_state=system.atomicCpu3.power_state
progress_interval=0
pwr_gating_latency=300
simpoint_start_insts=
simulate_data_stalls=false
simulate_inst_stalls=false
socket_id=0
switched_out=true
syscallRetryLatency=10000
system=system
tracer=system.atomicCpu3.tracer
width=1
workload=

[system.atomicCpu3.decoder]
type=X86Decoder
eventq_index=0
isa=system.atomicCpu3.isa

[system.atomicCpu3.isa]
type=X86ISA
eventq_index=0
vendor_string=M5 Simulator

[system.atomicCpu3.mmu]
type=X86MMU
children=dtb itb
dtb=system.atomicCpu3.mmu.dtb
eventq_index=0
itb=system.atomicCpu3.mmu.itb

[system.atomicCpu3.mmu.dtb]
type=X86TLB
children=walker
entry_type=data
eventq_index=0
next_level=Null
size=64
system=system
walker=system.atomicCpu3.mmu.dtb.walker

[system.atomicCpu3.mmu.dtb.walker]
type=X86PagetableWalker
children=power_state
clk_domain=system.clk_domain
eventq_index=0
num_squash_per_cycle=4
power_model=
power_state=system.atomicCpu3.mmu.dtb.walker.power_state
system=system

[system.atomicCpu3.mmu.dtb.walker.power_state]
type=PowerState
clk_gate_bins=20
clk_gate_max=1000000000000
clk_gate_min=1000
default_state=UNDEFINED
eventq_index=0
leaders=
possible_states=

[system.atomicCpu3.mmu.itb]
type=X86TLB
children=walker
entry_type=instruction
eventq_index=0
next_level=Null
size=64
system=system
walker=system.atomicCpu3.mmu.itb.walker

[system.atomicCpu3.mmu.itb.walker]
type=X86PagetableWalker
children=power_state
clk_domain=system.clk_domain
eventq_index=0
num_squash_per_cycle=4
power_model=
power_state=system.atomicCpu3.mmu.itb.walker.power_state
system=system

[system.atomicCpu3.mmu.itb.walker.power_state]
type=PowerState
clk_gate_bins=20
clk_gate_max=1000000000000
clk_gate_min=1000
default_state=UNDEFINED
eventq_index=0
leaders=
possible_states=

[system.atomicCpu3.power_state]
type=PowerState
clk_gate_bins=20
clk_gate_max=1000000000000
clk_gate_min=1000
default_state=UNDEFINED
eventq_index=0
leaders=
possible_states=ON CLK_GATED OFF

[system.atomicCpu3.tracer]
type=ExeTracer
eventq_index=0

[system.atomicCpu4]
type=BaseAtomicSimpleCPU
children=decoder isa mmu power_state tracer
branchPred=Null
checker=Null
clk_domain=system.clk_domain
cpu_id=4
decoder=system.atomicCpu4.decoder
do_checkpoint_insts=true
do_statistics_insts=true
eventq_index=0
function_trace=false
function_trace_start=0
interrupts=
isa=system.atomicCpu4.isa
max_insts_all_threads=0
max_insts_any_thread=0
mmu=system.atomicCpu4.mmu
numThreads=1
power_gating_on_idle=false
power_model=
power_state=system.atomicCpu4.power_state
progress_interval=0
pwr_gating_latency=300
simpoint_start_insts=
simulate_data_stalls=false
simulate_inst_stalls=false
socket_id=0
switched_out=true
syscallRetryLatency=10000
system=system
tracer=system.atomicCpu4.tracer
width=1
workload=

[system.atomicCpu4.decoder]
type=X86Decoder
eventq_index=0
isa=system.atomicCpu4.isa

[system.atomicCpu4.isa]
type=X86ISA
eventq_index=0
vendor_string=M5 Simulator

[system.atomicCpu4.mmu]
type=X86MMU
children=dtb itb
dtb=system.atomicCpu4.mmu.dtb
eventq_index=0
itb=system.atomicCpu4.mmu.itb

[system.atomicCpu4.mmu.dtb]
type=X86TLB
children=walker
entry_type=data
eventq_index=0
next_level=Null
size=64
system=system
walker=system.atomicCpu4.mmu.dtb.walker

[system.atomicCpu4.mmu.dtb.walker]
type=X86PagetableWalker
children=power_state
clk_domain=system.clk_domain
eventq_index=0
num_squash_per_cycle=4
power_model=
power_state=system.atomicCpu4.mmu.dtb.walker.power_state
system=system

[system.atomicCpu4.mmu.dtb.walker.power_state]
type=PowerState
clk_gate_bins=20
clk_gate_max=1000000000000
clk_gate_min=1000
default_state=UNDEFINED
eventq_index=0
leaders=
possible_states=

[system.atomicCpu4.mmu.itb]
type=X86TLB
children=walker
entry_type=instruction
eventq_index=0
next_level=Null
size=64
system=system
walker=system.atomicCpu4.mmu.itb.walker

[system.atomicCpu4.mmu.itb.walker]
type=X86PagetableWalker
children=power_state
clk_domain=system.clk_domain
eventq_index=0
num_squash_per_cycle=4
power_model=
power_state=system.atomicCpu4.mmu.itb.walker.power_state
system=system

[system.atomicCpu4.mmu.itb.walker.power_state]
type=PowerState
clk_gate_bins=20
clk_gate_max=1000000000000
clk_gate_min=1000
default_state=UNDEFINED
eventq_index=0
leaders=
possible_states=

[system.atomicCpu4.power_state]
type=PowerState
clk_gate_bins=20
clk_gate_max=1000000000000
clk_gate_min=1000
default_state=UNDEFINED
eventq_index=0
leaders=
possible_states=ON CLK_GATED OFF

[system.atomicCpu4.tracer]
type=ExeTracer
eventq_index=0

[system.atomicCpu5]
type=BaseAtomicSimpleCPU
children=decoder isa mmu power_state tracer
branchPred=Null
checker=Null
clk_domain=system.clk_domain
cpu_id=5
decoder=system.atomicCpu5.decoder
do_checkpoint_insts=true
do_statistics_insts=true
eventq_index=0
function_trace=false
function_trace_start=0
interrupts=
isa=system.atomicCpu5.isa
max_insts_all_threads=0
max_insts_any_thread=0
mmu=system.atomicCpu5.mmu
numThreads=1
power_gating_on_idle=false
power_model=
power_state=system.atomicCpu5.power_state
progress_interval=0
pwr_gating_latency=300
simpoint_start_insts=
simulate_data_stalls=false
simulate_inst_stalls=false
socket_id=0
switched_out=true
syscallRetryLatency=10000
system=system
tracer=system.atomicCpu5.tracer
width=1
workload=

[system.atomicCpu5.decoder]
type=X86Decoder
eventq_index=0
isa=system.atomicCpu5.isa

[system.atomicCpu5.isa]
type=X86ISA
eventq_index=0
vendor_string=M5 Simulator

[system.atomicCpu5.mmu]
type=X86MMU
children=dtb itb
dtb=system.atomicCpu5.mmu.dtb
eventq_index=0
itb=system.atomicCpu5.mmu.itb

[system.atomicCpu5.mmu.dtb]
type=X86TLB
children=walker
entry_type=data
eventq_index=0
next_level=Null
size=64
system=system
walker=system.atomicCpu5.mmu.dtb.walker

[system.atomicCpu5.mmu.dtb.walker]
type=X86PagetableWalker
children=power_state
clk_domain=system.clk_domain
eventq_index=0
num_squash_per_cycle=4
power_model=
power_state=system.atomicCpu5.mmu.dtb.walker.power_state
system=system

[system.atomicCpu5.mmu.dtb.walker.power_state]
type=PowerState
clk_gate_bins=20
clk_gate_max=1000000000000
clk_gate_min=1000
default_state=UNDEFINED
eventq_index=0
leaders=
possible_states=

[system.atomicCpu5.mmu.itb]
type=X86TLB
children=walker
entry_type=instruction
eventq_index=0
next_level=Null
size=64
system=system
walker=system.atomicCpu5.mmu.itb.walker

[system.atomicCpu5.mmu.itb.walker]
type=X86PagetableWalker
children=power_state
clk_domain=system.clk_domain
eventq_index=0
num_squash_per_cycle=4
power_model=
power_state=system.atomicCpu5.mmu.itb.walker.power_state
system=system

[system.atomicCpu5.mmu.itb.walker.power_state]
type=PowerState
clk_gate_bins=20
clk_gate_max=1000000000000
clk_gate_min=1000
default_state=UNDEFINED
eventq_index=0
leaders=
possible_states=

[system.atomicCpu5.power_state]
type=PowerState
clk_gate_bins=20
clk_gate_max=1000000000000
clk_gate_min=1000
default_state=UNDEFINED
eventq_index=0
leaders=
possible_states=ON CLK_GATED OFF

[system.atomicCpu5.tracer]
type=ExeTracer
eventq_index=0

[system.atomicCpu6]
type=BaseAtomicSimpleCPU
children=decoder isa mmu power_state tracer
branchPred=Null
checker=Null
clk_domain=system.clk_domain
cpu_id=6
decoder=system.atomicCpu6.decoder
do_checkpoint_insts=true
do_statistics_insts=true
eventq_index=0
function_trace=false
function_trace_start=0
interrupts=
isa=system.atomicCpu6.isa
max_insts_all_threads=0
max_insts_any_thread=0
mmu=system.atomicCpu6.mmu
numThreads=1
power_gating_on_idle=false
power_model=
power_state=system.atomicCpu6.power_state
progress_interval=0
pwr_gating_latency=300
simpoint_start_insts=
simulate_data_stalls=false
simulate_inst_stalls=false
socket_id=0
switched_out=true
syscallRetryLatency=10000
system=system
tracer=system.atomicCpu6.tracer
width=1
workload=

[system.atomicCpu6.decoder]
type=X86Decoder
eventq_index=0
isa=system.atomicCpu6.isa

[system.atomicCpu6.isa]
type=X86ISA
eventq_index=0
vendor_string=M5 Simulator

[system.atomicCpu6.mmu]
type=X86MMU
children=dtb itb
dtb=system.atomicCpu6.mmu.dtb
eventq_index=0
itb=system.atomicCpu6.mmu.itb

[system.atomicCpu6.mmu.dtb]
type=X86TLB
children=walker
entry_type=data
eventq_index=0
next_level=Null
size=64
system=system
walker=system.atomicCpu6.mmu.dtb.walker

[system.atomicCpu6.mmu.dtb.walker]
type=X86PagetableWalker
children=power_state
clk_domain=system.clk_domain
eventq_index=0
num_squash_per_cycle=4
power_model=
power_state=system.atomicCpu6.mmu.dtb.walker.power_state
system=system

[system.atomicCpu6.mmu.dtb.walker.power_state]
type=PowerState
clk_gate_bins=20
clk_gate_max=1000000000000
clk_gate_min=1000
default_state=UNDEFINED
eventq_index=0
leaders=
possible_states=

[system.atomicCpu6.mmu.itb]
type=X86TLB
children=walker
entry_type=instruction
eventq_index=0
next_level=Null
size=64
system=system
walker=system.atomicCpu6.mmu.itb.walker

[system.atomicCpu6.mmu.itb.walker]
type=X86PagetableWalker
children=power_state
clk_domain=system.clk_domain
eventq_index=0
num_squash_per_cycle=4
power_model=
power_state=system.atomicCpu6.mmu.itb.walker.power_state
system=system

[system.atomicCpu6.mmu.itb.walker.power_state]
type=PowerState
clk_gate_bins=20
clk_gate_max=1000000000000
clk_gate_min=1000
default_state=UNDEFINED
eventq_index=0
leaders=
possible_states=

[system.atomicCpu6.power_state]
type=PowerState
clk_gate_bins=20
clk_gate_max=1000000000000
clk_gate_min=1000
default_state=UNDEFINED
eventq_index=0
leaders=
possible_states=ON CLK_GATED OFF

[system.atomicCpu6.tracer]
type=ExeTracer
eventq_index=0

[system.atomicCpu7]
type=BaseAtomicSimpleCPU
children=decoder isa mmu power_state tracer
branchPred=Null
checker=Null
clk_domain=system.clk_domain
cpu_id=7
decoder=system.atomicCpu7.decoder
do_checkpoint_insts=true
do_statistics_insts=true
eventq_index=0
function_trace=false
function_trace_start=0
interrupts=
isa=system.atomicCpu7.isa
max_insts_all_threads=0
max_insts_any_thread=0
mmu=system.atomicCpu7.mmu
numThreads=1
power_gating_on_idle=false
power_model=
power_state=system.atomicCpu7.power_state
progress_interval=0
pwr_gating_latency=300
simpoint_start_insts=
simulate_data_stalls=false
simulate_inst_stalls=false
socket_id=0
switched_out=true
syscallRetryLatency=10000
system=system
tracer=system.atomicCpu7.tracer
width=1
workload=

[system.atomicCpu7.decoder]
type=X86Decoder
eventq_index=0
isa=system.atomicCpu7.isa

[system.atomicCpu7.isa]
type=X86ISA
eventq_index=0
vendor_string=M5 Simulator

[system.atomicCpu7.mmu]
type=X86MMU
children=dtb itb
dtb=system.atomicCpu7.mmu.dtb
eventq_index=0
itb=system.atomicCpu7.mmu.itb

[system.atomicCpu7.mmu.dtb]
type=X86TLB
children=walker
entry_type=data
eventq_index=0
next_level=Null
size=64
system=system
walker=system.atomicCpu7.mmu.dtb.walker

[system.atomicCpu7.mmu.dtb.walker]
type=X86PagetableWalker
children=power_state
clk_domain=system.clk_domain
eventq_index=0
num_squash_per_cycle=4
power_model=
power_state=system.atomicCpu7.mmu.dtb.walker.power_state
system=system

[system.atomicCpu7.mmu.dtb.walker.power_state]
type=PowerState
clk_gate_bins=20
clk_gate_max=1000000000000
clk_gate_min=1000
default_state=UNDEFINED
eventq_index=0
leaders=
possible_states=

[system.atomicCpu7.mmu.itb]
type=X86TLB
children=walker
entry_type=instruction
eventq_index=0
next_level=Null
size=64
system=system
walker=system.atomicCpu7.mmu.itb.walker

[system.atomicCpu7.mmu.itb.walker]
type=X86PagetableWalker
children=power_state
clk_domain=system.clk_domain
eventq_index=0
num_squash_per_cycle=4
power_model=
power_state=system.atomicCpu7.mmu.itb.walker.power_state
system=system

[system.atomicCpu7.mmu.itb.walker.power_state]
type=PowerState
clk_gate_bins=20
clk_gate_max=1000000000000
clk_gate_min=1000
default_state=UNDEFINED
eventq_index=0
leaders=
possible_states=

[system.atomicCpu7.power_state]
type=PowerState
clk_gate_bins=20
clk_gate_max=1000000000000
clk_gate_min=1000
default_state=UNDEFINED
eventq_index=0
leaders=
possible_states=ON CLK_GATED OFF

[system.atomicCpu7.tracer]
type=ExeTracer
eventq_index=0

[system.caches]
type=RubySystem
children=controllers00 controllers01 controllers02 controllers03 controllers04 controllers05 controllers06 controllers07 controllers08 controllers09 controllers10 controllers11 controllers12 controllers13 controllers14 controllers15 controllers16 controllers17 controllers18 network power_state sequencers0 sequencers1 sequencers2 sequencers3 sequencers4 sequencers5 sequencers6 sequencers7 sequencers8 sequencers9 sys_port_proxy
access_backing_store=false
all_instructions=false
block_size_bytes=64
clk_domain=system.clk_domain
eventq_index=0
hot_lines=false
memory_size_bits=64
num_of_sequencers=10
number_of_virtual_networks=5
phys_mem=Null
power_model=
power_state=system.caches.power_state
randomization=false
system=system

[system.caches.controllers00]
type=L1Cache_Controller
children=L1Dcache L1Icache mandatoryQueue optionalQueue power_state prefetcher requestFromL1Cache requestToL1Cache responseFromL1Cache responseToL1Cache unblockFromL1Cache
L1Dcache=system.caches.controllers00.L1Dcache
L1Icache=system.caches.controllers00.L1Icache
addr_ranges=0:18446744073709551615
buffer_size=0
clk_domain=system.clk_domain
cluster_id=0
downstream_destinations=
enable_prefetch=false
eventq_index=0
l1_request_latency=2
l1_response_latency=2
l2_select_num_bits=3
mandatoryQueue=system.caches.controllers00.mandatoryQueue
mandatory_queue_latency=1
number_of_TBEs=256
optionalQueue=system.caches.controllers00.optionalQueue
power_model=
power_state=system.caches.controllers00.power_state
prefetcher=system.caches.controllers00.prefetcher
recycle_latency=10
requestFromL1Cache=system.caches.controllers00.requestFromL1Cache
requestToL1Cache=system.caches.controllers00.requestToL1Cache
responseFromL1Cache=system.caches.controllers00.responseFromL1Cache
responseToL1Cache=system.caches.controllers00.responseToL1Cache
ruby_system=system.caches
send_evictions=true
sequencer=system.caches.sequencers0
system=system
to_l2_latency=1
transitions_per_cycle=4
unblockFromL1Cache=system.caches.controllers00.unblockFromL1Cache
upstream_destinations=
version=0

[system.caches.controllers00.L1Dcache]
type=RubyCache
children=replacement_policy
assoc=8
block_size=0
dataAccessLatency=1
dataArrayBanks=1
eventq_index=0
is_icache=false
replacement_policy=system.caches.controllers00.L1Dcache.replacement_policy
resourceStalls=false
ruby_system=system.caches
size=524288
start_index_bit=6
tagAccessLatency=1
tagArrayBanks=1

[system.caches.controllers00.L1Dcache.replacement_policy]
type=TreePLRURP
eventq_index=0
num_leaves=8

[system.caches.controllers00.L1Icache]
type=RubyCache
children=replacement_policy
assoc=2
block_size=0
dataAccessLatency=1
dataArrayBanks=1
eventq_index=0
is_icache=true
replacement_policy=system.caches.controllers00.L1Icache.replacement_policy
resourceStalls=false
ruby_system=system.caches
size=32768
start_index_bit=6
tagAccessLatency=1
tagArrayBanks=1

[system.caches.controllers00.L1Icache.replacement_policy]
type=TreePLRURP
eventq_index=0
num_leaves=2

[system.caches.controllers00.mandatoryQueue]
type=MessageBuffer
allow_zero_latency=false
buffer_size=0
eventq_index=0
max_dequeue_rate=0
ordered=false
randomization=ruby_system
routing_priority=0

[system.caches.controllers00.optionalQueue]
type=MessageBuffer
allow_zero_latency=false
buffer_size=0
eventq_index=0
max_dequeue_rate=0
ordered=false
randomization=ruby_system
routing_priority=0

[system.caches.controllers00.power_state]
type=PowerState
clk_gate_bins=20
clk_gate_max=1000000000000
clk_gate_min=1000
default_state=UNDEFINED
eventq_index=0
leaders=
possible_states=

[system.caches.controllers00.prefetcher]
type=RubyPrefetcher
cross_page=false
eventq_index=0
nonunit_filter=8
num_startup_pfs=1
num_streams=4
page_shift=12
train_misses=4
unit_filter=8

[system.caches.controllers00.requestFromL1Cache]
type=MessageBuffer
allow_zero_latency=false
buffer_size=0
eventq_index=0
max_dequeue_rate=0
ordered=false
randomization=ruby_system
routing_priority=0
out_port=system.caches.network.in_port[0]

[system.caches.controllers00.requestToL1Cache]
type=MessageBuffer
allow_zero_latency=false
buffer_size=0
eventq_index=0
max_dequeue_rate=0
ordered=false
randomization=ruby_system
routing_priority=0
in_port=system.caches.network.out_port[0]

[system.caches.controllers00.responseFromL1Cache]
type=MessageBuffer
allow_zero_latency=false
buffer_size=0
eventq_index=0
max_dequeue_rate=0
ordered=false
randomization=ruby_system
routing_priority=0
out_port=system.caches.network.in_port[1]

[system.caches.controllers00.responseToL1Cache]
type=MessageBuffer
allow_zero_latency=false
buffer_size=0
eventq_index=0
max_dequeue_rate=0
ordered=false
randomization=ruby_system
routing_priority=0
in_port=system.caches.network.out_port[1]

[system.caches.controllers00.unblockFromL1Cache]
type=MessageBuffer
allow_zero_latency=false
buffer_size=0
eventq_index=0
max_dequeue_rate=0
ordered=false
randomization=ruby_system
routing_priority=0
out_port=system.caches.network.in_port[2]

[system.caches.controllers01]
type=L1Cache_Controller
children=L1Dcache L1Icache mandatoryQueue optionalQueue power_state prefetcher requestFromL1Cache requestToL1Cache responseFromL1Cache responseToL1Cache unblockFromL1Cache
L1Dcache=system.caches.controllers01.L1Dcache
L1Icache=system.caches.controllers01.L1Icache
addr_ranges=0:18446744073709551615
buffer_size=0
clk_domain=system.clk_domain
cluster_id=0
downstream_destinations=
enable_prefetch=false
eventq_index=0
l1_request_latency=2
l1_response_latency=2
l2_select_num_bits=3
mandatoryQueue=system.caches.controllers01.mandatoryQueue
mandatory_queue_latency=1
number_of_TBEs=256
optionalQueue=system.caches.controllers01.optionalQueue
power_model=
power_state=system.caches.controllers01.power_state
prefetcher=system.caches.controllers01.prefetcher
recycle_latency=10
requestFromL1Cache=system.caches.controllers01.requestFromL1Cache
requestToL1Cache=system.caches.controllers01.requestToL1Cache
responseFromL1Cache=system.caches.controllers01.responseFromL1Cache
responseToL1Cache=system.caches.controllers01.responseToL1Cache
ruby_system=system.caches
send_evictions=true
sequencer=system.caches.sequencers1
system=system
to_l2_latency=1
transitions_per_cycle=4
unblockFromL1Cache=system.caches.controllers01.unblockFromL1Cache
upstream_destinations=
version=1

[system.caches.controllers01.L1Dcache]
type=RubyCache
children=replacement_policy
assoc=8
block_size=0
dataAccessLatency=1
dataArrayBanks=1
eventq_index=0
is_icache=false
replacement_policy=system.caches.controllers01.L1Dcache.replacement_policy
resourceStalls=false
ruby_system=system.caches
size=524288
start_index_bit=6
tagAccessLatency=1
tagArrayBanks=1

[system.caches.controllers01.L1Dcache.replacement_policy]
type=TreePLRURP
eventq_index=0
num_leaves=8

[system.caches.controllers01.L1Icache]
type=RubyCache
children=replacement_policy
assoc=2
block_size=0
dataAccessLatency=1
dataArrayBanks=1
eventq_index=0
is_icache=true
replacement_policy=system.caches.controllers01.L1Icache.replacement_policy
resourceStalls=false
ruby_system=system.caches
size=32768
start_index_bit=6
tagAccessLatency=1
tagArrayBanks=1

[system.caches.controllers01.L1Icache.replacement_policy]
type=TreePLRURP
eventq_index=0
num_leaves=2

[system.caches.controllers01.mandatoryQueue]
type=MessageBuffer
allow_zero_latency=false
buffer_size=0
eventq_index=0
max_dequeue_rate=0
ordered=false
randomization=ruby_system
routing_priority=0

[system.caches.controllers01.optionalQueue]
type=MessageBuffer
allow_zero_latency=false
buffer_size=0
eventq_index=0
max_dequeue_rate=0
ordered=false
randomization=ruby_system
routing_priority=0

[system.caches.controllers01.power_state]
type=PowerState
clk_gate_bins=20
clk_gate_max=1000000000000
clk_gate_min=1000
default_state=UNDEFINED
eventq_index=0
leaders=
possible_states=

[system.caches.controllers01.prefetcher]
type=RubyPrefetcher
cross_page=false
eventq_index=0
nonunit_filter=8
num_startup_pfs=1
num_streams=4
page_shift=12
train_misses=4
unit_filter=8

[system.caches.controllers01.requestFromL1Cache]
type=MessageBuffer
allow_zero_latency=false
buffer_size=0
eventq_index=0
max_dequeue_rate=0
ordered=false
randomization=ruby_system
routing_priority=0
out_port=system.caches.network.in_port[3]

[system.caches.controllers01.requestToL1Cache]
type=MessageBuffer
allow_zero_latency=false
buffer_size=0
eventq_index=0
max_dequeue_rate=0
ordered=false
randomization=ruby_system
routing_priority=0
in_port=system.caches.network.out_port[2]

[system.caches.controllers01.responseFromL1Cache]
type=MessageBuffer
allow_zero_latency=false
buffer_size=0
eventq_index=0
max_dequeue_rate=0
ordered=false
randomization=ruby_system
routing_priority=0
out_port=system.caches.network.in_port[4]

[system.caches.controllers01.responseToL1Cache]
type=MessageBuffer
allow_zero_latency=false
buffer_size=0
eventq_index=0
max_dequeue_rate=0
ordered=false